test/data/ieee_four_bus_cap/result.csv
# result.csv run at 2000-01-01 03:00:00 EST on 14 powerflow objects (not all are nodes)
node_name,voltA_real,voltA_imag,voltB_real,voltB_imag,voltC_real,voltC_imag
node1,7199.558000,0.000000,-3599.779000,-6235.000000,-3599.779000,6235.000000
node2,9080.844290,-2356.926291,-6184.352622,-7520.774169,-3679.159285,9334.323318
GC-12-47-1_cap_1,9080.844290,-2356.926291,-6184.352622,-7520.774169,-3679.159285,9334.323318
node3,2928.347197,-859.343860,-2084.953337,-2395.208599,-1120.494669,3079.929921
load4,2663.766436,-907.768614,-2097.933830,-2186.139610,-948.791657,2981.245214
